TEST_N_Curr_Elem.Txt

CIRCUIT ELEMENT CURRENTS

(Currents into element from indicated bus)

Power Delivery Elements

  Bus Phase    Magnitude, A     Angle      (Real)   +j  (Imag)

ELEMENT = "Vsource.SOURCE"
100      1           10.231 /_  145.5 =    -8.4333 +j     5.792
100      2           10.231 /_   25.5 =     9.2326 +j    4.4074
100      3           10.231 /_  -94.5 =   -0.79938 +j   -10.199
------------
100      0           10.231 /_  -34.5 =     8.4333 +j    -5.792
100      0           10.231 /_ -154.5 =    -9.2326 +j   -4.4074
100      0           10.231 /_   85.5 =    0.79938 +j    10.199

ELEMENT = "Line.LINEA-B"
100      1           10.231 /_  -34.5 =     8.4333 +j    -5.792
100      2           10.231 /_ -154.5 =    -9.2326 +j   -4.4074
100      3           10.231 /_   85.5 =    0.79938 +j    10.199
------------
200      1           10.235 /_  145.5 =    -8.4333 +j    5.8001
200      2           10.235 /_   25.5 =     9.2397 +j    4.4034
200      3           10.235 /_  -94.5 =   -0.80641 +j   -10.203

= = = = = = = = = = = = = = = = = = =  = = = = = = = = = = =  = =

Power Conversion Elements

  Bus Phase    Magnitude, A     Angle      (Real)   +j  (Imag)

ELEMENT = "Load.L1"
200      1           10.235 /_  -34.5 =     8.4333 +j   -5.8001
200      2           10.235 /_ -154.5 =    -9.2397 +j   -4.4034
200      3           10.235 /_   85.5 =    0.80641 +j    10.203
200      0      1.9974E-009 /_ -154.5 =  -1.8031E-009 +j -8.5931E-010

